389710
  -OEChem-08211416303D

 34 36  0     0  0  0  0  0  0999 V2000
   -1.4171    2.7619   -0.2905 F   0  0  0  0  0  0  0  0  0  0  0  0
   -5.4375    0.2727    0.0247 F   0  0  0  0  0  0  0  0  0  0  0  0
    4.6935    2.1566    0.8545 F   0  0  0  0  0  0  0  0  0  0  0  0
    0.0573    0.5163   -0.1006 O   0  0  0  0  0  0  0  0  0  0  0  0
   -1.6719   -3.1527    0.2816 O   0  0  0  0  0  0  0  0  0  0  0  0
   -4.0766   -2.0818    0.2260 N   0  0  0  0  0  0  0  0  0  0  0  0
    6.4232    0.2546   -0.2131 N   0  0  0  0  0  0  0  0  0  0  0  0
   -1.9655   -0.8180    0.0655 C   0  0  0  0  0  0  0  0  0  0  0  0
   -1.3095    0.4050   -0.0644 C   0  0  0  0  0  0  0  0  0  0  0  0
   -3.3609   -0.8715    0.0960 C   0  0  0  0  0  0  0  0  0  0  0  0
    0.8172   -0.6388    0.0042 C   0  0  0  0  0  0  0  0  0  0  0  0
   -3.4412    1.5356   -0.1348 C   0  0  0  0  0  0  0  0  0  0  0  0
   -2.0473    1.5847   -0.1650 C   0  0  0  0  0  0  0  0  0  0  0  0
   -1.1630   -2.0463    0.1679 C   0  0  0  0  0  0  0  0  0  0  0  0
   -4.0963    0.3101   -0.0045 C   0  0  0  0  0  0  0  0  0  0  0  0
    2.2743   -0.4058   -0.0522 C   0  0  0  0  0  0  0  0  0  0  0  0
    0.3031   -1.8731    0.1262 C   0  0  0  0  0  0  0  0  0  0  0  0
   -4.2327    2.7957   -0.2418 C   0  0  0  0  0  0  0  0  0  0  0  0
    2.8135    0.7872    0.4356 C   0  0  0  0  0  0  0  0  0  0  0  0
    3.1199   -1.3772   -0.5934 C   0  0  0  0  0  0  0  0  0  0  0  0
    4.1900    1.0072    0.3826 C   0  0  0  0  0  0  0  0  0  0  0  0
    4.4963   -1.1573   -0.6464 C   0  0  0  0  0  0  0  0  0  0  0  0
    5.0313    0.0349   -0.1584 C   0  0  0  0  0  0  0  0  0  0  0  0
    0.8992   -2.7732    0.2205 H   0  0  0  0  0  0  0  0  0  0  0  0
   -3.6818    3.6482    0.1695 H   0  0  0  0  0  0  0  0  0  0  0  0
   -4.4672    3.0034   -1.2906 H   0  0  0  0  0  0  0  0  0  0  0  0
   -5.1698    2.7244    0.3205 H   0  0  0  0  0  0  0  0  0  0  0  0
    2.1823    1.5586    0.8698 H   0  0  0  0  0  0  0  0  0  0  0  0
    2.7405   -2.3093   -1.0038 H   0  0  0  0  0  0  0  0  0  0  0  0
   -3.5927   -2.9650    0.3033 H   0  0  0  0  0  0  0  0  0  0  0  0
   -5.0881   -2.0655    0.2433 H   0  0  0  0  0  0  0  0  0  0  0  0
    5.1413   -1.9203   -1.0746 H   0  0  0  0  0  0  0  0  0  0  0  0
    6.8112    1.1188    0.1413 H   0  0  0  0  0  0  0  0  0  0  0  0
    7.0332   -0.4505   -0.6047 H   0  0  0  0  0  0  0  0  0  0  0  0
  1 13  1  0  0  0  0
  2 15  1  0  0  0  0
  3 21  1  0  0  0  0
  4  9  1  0  0  0  0
  4 11  1  0  0  0  0
  5 14  2  0  0  0  0
  6 10  1  0  0  0  0
  6 30  1  0  0  0  0
  6 31  1  0  0  0  0
  7 23  1  0  0  0  0
  7 33  1  0  0  0  0
  7 34  1  0  0  0  0
  8  9  1  0  0  0  0
  8 10  2  0  0  0  0
  8 14  1  0  0  0  0
  9 13  2  0  0  0  0
 10 15  1  0  0  0  0
 11 16  1  0  0  0  0
 11 17  2  0  0  0  0
 12 13  1  0  0  0  0
 12 15  2  0  0  0  0
 12 18  1  0  0  0  0
 14 17  1  0  0  0  0
 16 19  2  0  0  0  0
 16 20  1  0  0  0  0
 17 24  1  0  0  0  0
 18 25  1  0  0  0  0
 18 26  1  0  0  0  0
 18 27  1  0  0  0  0
 19 21  1  0  0  0  0
 19 28  1  0  0  0  0
 20 22  2  0  0  0  0
 20 29  1  0  0  0  0
 21 23  2  0  0  0  0
 22 23  1  0  0  0  0
 22 32  1  0  0  0  0
M  END
> <PUBCHEM_COMPOUND_CID>
389710

> <PUBCHEM_CONFORMER_RMSD>
0.6

> <PUBCHEM_CONFORMER_DIVERSEORDER>
2
4
5
1
3
6

> <PUBCHEM_MMFF94_PARTIAL_CHARGES>
31
1 -0.19
10 0.1
11 0.05
12 -0.14
13 0.19
14 0.47
15 0.19
16 0.03
17 -0.14
18 0.14
19 -0.15
2 -0.19
20 -0.15
21 0.19
22 -0.15
23 0.1
24 0.15
28 0.15
29 0.15
3 -0.19
30 0.4
31 0.4
32 0.15
33 0.4
34 0.4
4 -0.16
5 -0.57
6 -0.9
7 -0.9
8 0.09
9 0.08

> <PUBCHEM_EFFECTIVE_ROTOR_COUNT>
1

> <PUBCHEM_PHARMACOPHORE_FEATURES>
9
1 4 acceptor
1 5 acceptor
1 6 cation
1 6 donor
1 7 cation
1 7 donor
6 16 19 20 21 22 23 rings
6 4 8 9 11 14 17 rings
6 8 9 10 12 13 15 rings

> <PUBCHEM_HEAVY_ATOM_COUNT>
23

> <PUBCHEM_ATOM_DEF_STEREO_COUNT>
0

> <PUBCHEM_ATOM_UDEF_STEREO_COUNT>
0

> <PUBCHEM_BOND_DEF_STEREO_COUNT>
0

> <PUBCHEM_BOND_UDEF_STEREO_COUNT>
0

> <PUBCHEM_ISOTOPIC_ATOM_COUNT>
0

> <PUBCHEM_COMPONENT_COUNT>
1

> <PUBCHEM_CACTVS_TAUTO_COUNT>
11

> <PUBCHEM_CONFORMER_ID>
0005F24E00000002

> <PUBCHEM_MMFF94_ENERGY>
84.0446

> <PUBCHEM_FEATURE_SELFOVERLAP>
45.699

> <PUBCHEM_SHAPE_FINGERPRINT>
10319926 262 18338782482482945906
10411042 1 17904766935786447283
10493431 412 18267594516164387353
10498660 4 18335978662600719253
10608611 8 18341611538464094920
10646746 165 18409730647264854494
11578080 2 13900256290776392441
11595378 159 17603854581923365320
12107183 9 17901375702686552770
12173636 292 18336825299522969831
12236239 1 17385443215314600466
12390115 104 18270413680677813217
12403259 415 18272930540224341384
12596602 18 16588033449831616656
12969540 114 18262500530010294519
13140716 1 17974578201803585491
13402501 40 18342455950256552736
13544592 145 18341623555735584502
14790565 3 18196096538805873089
15042514 8 18191311674902888451
15196674 1 18410855421499842918
15961568 22 18115870875102185980
17844677 252 18411426141402822944
200 152 17060339608792793186
20510252 161 18413672409203386899
20645477 56 18409450284420948838
20645477 70 17274832299017614222
21033648 29 18341603811280450912
21065198 57 18411419536027951722
21236236 1 18412826893615474351
21267235 1 18336273443612966187
21279426 13 18268996371518826894
221357 26 18202000997782219700
23227448 37 18341328989196986356
23402539 116 18412539942328809735
23557571 272 18341621446742708862
23559900 14 18199186196686690670
245318 6 16593665324926643244
283562 15 18410009945152517435
3004659 81 18263087631198408126
350125 39 18410579504253342600
3545911 37 18412547609024501492
4073 2 18187652431617847282
4214541 1 18411419501420033664
495365 180 17561071524009383434
5104073 3 18336828602147215986
59755656 215 18340492179972091342
633830 44 18199741441115076109
77779 3 18412545401274089838
9709674 26 18342182171919427878
9981440 41 18260270715929073419

> <PUBCHEM_SHAPE_MULTIPOLES>
429.81
11.9
2.79
0.68
9.21
0.01
0
3.9
-0.33
-2.45
0.13
0.29
0.03
1.05

> <PUBCHEM_SHAPE_SELFOVERLAP>
962.243

> <PUBCHEM_SHAPE_VOLUME>
229.1

> <PUBCHEM_COORDINATE_TYPE>
2
5
10

$$$$
